/*--------------------------------*- C++ -*----------------------------------*\
  =========                 |
  \\      /  F ield         | OpenFOAM: The Open Source CFD Toolbox
   \\    /   O peration     | Website:  https://openfoam.org
    \\  /    A nd           | Version:  7
     \\/     M anipulation  |
\*---------------------------------------------------------------------------*/
FoamFile
{
    version     2.0;
    format      ascii;
    class       volVectorField;
    location    "0.5";
    object      U;
}
// * * * * * * * * * * * * * * * * * * * * * * * * * * * * * * * * * * * * * //

dimensions      [0 1 -1 0 0 0 0];

internalField   uniform (3 0 0);

boundaryField
{
    inlet
    {
        type            fixedValue;
        value           uniform (3 0 0);   // this is based on 20d HRT, but if it was based on Q, it would be (27 0 0), since real Q=0.0314 (when U=100 cm/s), now real Q is 0.0314/2, corresponding to total volume (2500 m3) and length edge (50 m), U= 0.000314 m/s or 27 m/d
    }
    outlet
    {
        type            zeroGradient;
    }
    fixedWalls
    {
        type            zeroGradient;
    }
    frontAndBack
    {
        type            empty;
    }
}


// ************************************************************************* //
