/*--------------------------------*- C++ -*----------------------------------*\
  =========                 |
  \\      /  F ield         | OpenFOAM: The Open Source CFD Toolbox
   \\    /   O peration     | Website:  https://openfoam.org
    \\  /    A nd           | Version:  6
     \\/     M anipulation  |
\*---------------------------------------------------------------------------*/
FoamFile
{
    version     2.0;
    format      ascii;
    class       volScalarField;
    object      X1;
}
// * Carb Degraders * * * * * * * * * * * * * * * * * * * * * * * * * * * * * * * * * * * * //

dimensions      [0 0 0 1 0 0 0];

internalField   uniform 0.02; 

boundaryField
{
    inlet
    {
        type            fixedValue;
        value           uniform 4;
    }

    outlet
    {
        type            zeroGradient;
    }

    fixedWalls
    {
        type            zeroGradient;
    }


    frontAndBack
    {
        type            empty;
    }
}

// ************************************************************************* //
