/*--------------------------------*- C++ -*----------------------------------*\
  =========                 |
  \\      /  F ield         | OpenFOAM: The Open Source CFD Toolbox
   \\    /   O peration     | Website:  https://openfoam.org
    \\  /    A nd           | Version:  6
     \\/     M anipulation  |
\*---------------------------------------------------------------------------*/
FoamFile
{
    version     2.0;
    format      ascii;
    class       dictionary;
    location    "system";
    object      controlDict;
}
// * * * * * * * * * * * * * * * * * * * * * * * * * * * * * * * * * * * * * //

application     passiveScalarADM1Foam;

startFrom       startTime;

startTime       0;

stopAt          endTime;

endTime         200;

deltaT          0.001;

writeControl    runTime;

writeInterval   10;

purgeWrite      0;

writeFormat     ascii;

writePrecision  6;

writeCompression off;

timeFormat      general;

timePrecision   6;

runTimeModifiable true;




libs ( "libOpenFOAM.so" "libgroovyBC.so" "libswakFunctionObjects.so" "libsimpleSwakFunctionObjects.so");


functions 
{
include "myPostProcFunctions"

}



// check also fieldReport



// ************************************************************************* //
